Version 4.1
SHEET 1 880 680
WIRE 496 32 352 32
WIRE 656 32 528 32
WIRE 80 160 -48 160
WIRE 448 160 352 160
WIRE 656 160 656 32
WIRE 656 160 576 160
WIRE -48 208 -48 160
WIRE -48 208 -144 208
WIRE 80 224 -16 224
WIRE 448 224 352 224
WIRE -16 240 -16 224
WIRE -16 240 -144 240
WIRE 448 240 448 224
WIRE 656 240 656 160
WIRE 656 240 576 240
WIRE -16 272 -144 272
WIRE -16 288 -16 272
WIRE 80 288 -16 288
WIRE -48 304 -144 304
WIRE -48 352 -48 304
WIRE 48 352 -48 352
WIRE 80 352 48 352
WIRE 384 352 352 352
WIRE 48 384 48 352
WIRE 80 384 48 384
WIRE 384 384 384 352
WIRE 384 384 352 384
WIRE 48 416 48 384
WIRE 384 416 384 384
WIRE 656 416 656 240
FLAG 656 416 0
FLAG 384 416 0
FLAG 48 416 0
FLAG 80 32 X
FLAG 80 64 X
FLAG 80 96 X
FLAG 80 128 X
FLAG 80 192 X
FLAG 80 256 X
FLAG 80 320 X
FLAG 352 320 X
FLAG 352 288 X
FLAG 352 256 X
FLAG 352 192 X
FLAG 352 128 X
FLAG 352 96 X
FLAG 352 64 X
SYMBOL symbols\\ESP32-C3-Mini 128 96 R0
SYMATTR InstName X1
SYMBOL symbols\\PiezoBuzzer 512 32 R0
SYMATTR InstName X2
SYMBOL symbols\\Push_Button 512 160 R0
SYMATTR InstName X3
SYMBOL symbols\\Push_Button 512 240 R0
SYMATTR InstName X4
SYMBOL symbols\\TM1637 -64 272 R0
SYMATTR InstName X5
